%chk=cyclopropene.chk
# hf/3-21g geom=connectivity

Title Card Required

0 1
H       0.000000        1.232560        -1.577103
H       0.000000        -1.232560       -1.577103
C       0.000000        0.697583        -0.650443
C       0.000000        -0.697583       -0.650443
C       0.000000        -1.395038       0.557442
C       0.000000        1.395038        0.557442
H       0.000000        -2.494718       0.557442
H       0.000000        2.494718        0.557442
C   0.0000   0.697583   1.765326
C   0.0000   -0.697583   1.765326
C   0.0000   -1.395038   2.973211
C   0.0000   1.395038   2.973211
H   0.0000   -2.494718   2.973211
H   0.0000   2.494718   2.973211
C   0.0000   0.697583   4.181095
C   0.0000   -0.697583   4.181095
C   0.0000   -1.395038   5.38898
C   0.0000   1.395038   5.38898
H   0.0000   -2.494718   5.38898
H   0.0000   2.494718   5.38898
C   0.0000   0.697583   6.596864
C   0.0000   -0.697583   6.596864
C   0.0000   -1.395038   7.804749
C   0.0000   1.395038   7.804749
H   0.0000   -2.494718   7.804749
H   0.0000   2.494718   7.804749
C   0.0000   0.697583   9.012633
C   0.0000   -0.697583   9.012633
C   0.0000   -1.395038   10.220518
C   0.0000   1.395038   10.220518
H   0.0000   -2.494718   10.220518
H   0.0000   2.494718   10.220518
C   0.0000   0.697583   11.428402
C   0.0000   -0.697583   11.428402
C   0.0000   -1.395038   12.636287
C   0.0000   1.395038   12.636287
H   0.0000   -2.494718   12.636287
H   0.0000   2.494718   12.636287
C   0.0000   0.697583   13.844171
C   0.0000   -0.697583   13.844171
C   0.0000   -1.395038   15.052056
C   0.0000   1.395038   15.052056
H   0.0000   -2.494718   15.052056
H   0.0000   2.494718   15.052056
C   0.0000   0.697583   16.25994
C   0.0000   -0.697583   16.25994
C   0.0000   -1.395038   17.467825
C   0.0000   1.395038   17.467825
H   0.0000   -2.494718   17.467825
H   0.0000   2.494718   17.467825
C   0.0000   0.697583   18.675709
C   0.0000   -0.697583   18.675709
C   0.0000   -1.395038   19.883594
C   0.0000   1.395038   19.883594
H   0.0000   -2.494718   19.883594
H   0.0000   2.494718   19.883594
C   0.0000   0.697583   21.091478
C   0.0000   -0.697583   21.091478
C   0.0000   -1.395038   22.299363
C   0.0000   1.395038   22.299363
H   0.0000   -2.494718   22.299363
H   0.0000   2.494718   22.299363
C   0.0000   0.697583   23.507247
C   0.0000   -0.697583   23.507247
C   0.0000   -1.395038   24.715132
C   0.0000   1.395038   24.715132
H   0.0000   -2.494718   24.715132
H   0.0000   2.494718   24.715132
C   0.0000   0.697583   25.923016
C   0.0000   -0.697583   25.923016
C   0.0000   -1.395038   27.130901
C   0.0000   1.395038   27.130901
H   0.0000   -2.494718   27.130901
H   0.0000   2.494718   27.130901
C   0.0000   0.697583   28.338785
C   0.0000   -0.697583   28.338785
C   0.0000   -1.395038   29.54667
C   0.0000   1.395038   29.54667
H   0.0000   -2.494718   29.54667
H   0.0000   2.494718   29.54667
C   0.0000   0.697583   30.754554
C   0.0000   -0.697583   30.754554
C   0.0000   -1.395038   31.962439
C   0.0000   1.395038   31.962439
H   0.0000   -2.494718   31.962439
H   0.0000   2.494718   31.962439
C   0.0000   0.69758346   33.170323
C   0.0000   -0.69758346   33.170323
H   0.0000   1.2325599   34.09697
H   0.0000   -1.2325599   34.09697

